/*---------------------------------------------------------------------------*\
| =========                 |                                                 |
| \\      /  F ield         | OpenFOAM: The Open Source CFD Toolbox           |
|  \\    /   O peration     | Version:  1.4                                   |
|   \\  /    A nd           | Web:      http://www.openfoam.org               |
|    \\/     M anipulation  |                                                 |
\*---------------------------------------------------------------------------*/

FoamFile
{
    version         2.0;
    format          ascii;

    root            "";
    case            "";
    instance        "";
    local           "";

    class           dictionary;
    object          fvSchemes;
}

// * * * * * * * * * * * * * * * * * * * * * * * * * * * * * * * * * * * * * //

ddtSchemes
{
    default Euler;
}

gradSchemes
{
    default         none;
}

divSchemes
{
    default             none;
    div(phiGhost,TGhost)          Gauss highOrderFit
        cartesian
        (
            (0 0 0)
            (1 0 0)
            (2 0 0)
            (3 0 0)
            (0 0 1)
            (1 0 1)
            (0 0 2)
            (2 0 1)
            (1 0 2)
        )
        inverseDistanceMultipliers;
}

laplacianSchemes
{
    default         none;
}

interpolationSchemes
{
    default        none;
}

snGradSchemes
{
    default         none;
}

fluxRequired
{
    default         no;
}


// ************************************************************************* //
